Circuit: * C:\Dev\GitHub\ECE-2804-SpO2\Milestone_2\Combined\SigAmp.asc

Early termination of direct N-R iteration.
Direct Newton iteration failed to find .op point.  (Use ".option noopiter" to skip.)
Starting Gmin stepping
Gmin = 10
Gmin = 1.07374
Gmin = 0.115292
Gmin = 0.0123794
Gmin = 0.00132923
Gmin = 0.000142725
Gmin = 1.5325e-05
Gmin = 1.6455e-06
Gmin = 1.76685e-07
Gmin = 1.89714e-08
Gmin = 2.03704e-09
Gmin = 2.18725e-10
Gmin = 2.34854e-11
Gmin = 2.52173e-12
Gmin = 2.70769e-13
Gmin = 0
Gmin stepping succeeded in finding the operating point.


Date: Wed Feb 21 22:42:33 2024
Total elapsed time: 0.365 seconds.

tnom = 27
temp = 27
method = modified trap
totiter = 14561
traniter = 14009
tranpoints = 2751
accept = 2278
rejected = 473
matrix size = 131
fillins = 277
solver = Normal
Avg thread counts: 1.3/2.5/2.8/1.3
Matrix Compiler1: 23.54 KB object code size  4.4/2.2/[1.5]
Matrix Compiler2: 15.67 KB object code size  2.0/1.8/[0.9]

