Circuit: * C:\Dev\GitHub\ECE-2804-SpO2\Milestone_2\Signal Amplifier\Draft2.asc

.OP point found by inspection.

Date: Tue Feb  6 16:47:54 2024
Total elapsed time: 0.046 seconds.

tnom = 27
temp = 27
method = trap
totiter = 0
traniter = 0
tranpoints = 0
accept = 0
rejected = 0
matrix size = 3
fillins = 0
solver = Normal
Avg thread counts: 12.0/0.0/0.0/2.9
Matrix Compiler1:       4 opcodes
Matrix Compiler2:      15 opcodes
