Circuit: * C:\Dev\GitHub\ECE-2804-SpO2\Milestone_2\Signal Amplifier\SigAmp.asc

Direct Newton iteration failed to find .op point.  (Use ".option noopiter" to skip.)
Starting Gmin stepping
Gmin = 10
Gmin = 1.07374
Gmin = 0.115292
Gmin = 0.0123794
Gmin = 0.00132923
Gmin = 0.000142725
Gmin = 1.5325e-05
Gmin = 1.6455e-06
Gmin = 1.76685e-07
Gmin = 1.89714e-08
Gmin = 2.03704e-09
Gmin = 2.18725e-10
Gmin = 2.34854e-11
Gmin = 2.52173e-12
Gmin = 2.70769e-13
Gmin = 0
Gmin stepping succeeded in finding the operating point.


Date: Tue Feb  6 15:59:14 2024
Total elapsed time: 1.175 seconds.

tnom = 27
temp = 27
method = modified trap
totiter = 10572
traniter = 10058
tranpoints = 2672
accept = 2254
rejected = 418
matrix size = 98
fillins = 189
solver = Normal
Avg thread counts: 1.4/2.5/2.4/1.4
Matrix Compiler1: 16.02 KB object code size  14.1/9.1/[7.5]
Matrix Compiler2: 11.23 KB object code size  5.0/9.2/[2.8]

