Circuit: * C:\Dev\GitHub\ECE-2804-SpO2\Milestone_2\Signal Amplifier\SigAmp V2.asc

WARNING: Less than two connections to node nc_01.  This node is used by r4.
Direct Newton iteration failed to find .op point.  (Use ".option noopiter" to skip.)
Starting Gmin stepping
Gmin = 10
Gmin = 1.07374
Gmin = 0.115292
Gmin = 0.0123794
Gmin = 0.00132923
Gmin = 0.000142725
Gmin = 1.5325e-05
Gmin = 1.6455e-06
Gmin = 1.76685e-07
Gmin = 1.89714e-08
Gmin = 2.03704e-09
Gmin = 2.18725e-10
Gmin = 2.34854e-11
Gmin = 2.52173e-12
Gmin = 2.70769e-13
Gmin = 0
Gmin stepping succeeded in finding the operating point.


Date: Tue Feb  6 17:01:10 2024
Total elapsed time: 0.227 seconds.

tnom = 27
temp = 27
method = modified trap
totiter = 6007
traniter = 5478
tranpoints = 1658
accept = 1513
rejected = 145
matrix size = 99
fillins = 118
solver = Normal
Avg thread counts: 1.7/3.4/3.1/1.7
Matrix Compiler1: 10.86 KB object code size  2.5/1.8/[0.7]
Matrix Compiler2: 10.13 KB object code size  0.9/1.5/[0.6]

