Circuit: * C:\Dev\GitHub\ECE-2804-SpO2\Milestone_2\Signal Amplifier\Stage2.asc

Direct Newton iteration failed to find .op point.  (Use ".option noopiter" to skip.)
Starting Gmin stepping
Gmin = 10
Gmin = 1.07374
Gmin = 0.115292
Gmin = 0.0123794
Gmin = 0.00132923
Gmin = 0.000142725
Gmin = 1.5325e-05
Gmin = 1.6455e-06
Gmin = 1.76685e-07
Gmin = 1.89714e-08
Gmin = 2.03704e-09
Gmin = 2.18725e-10
Gmin = 2.34854e-11
Gmin = 2.52173e-12
Gmin = 2.70769e-13
Gmin = 0
Gmin stepping succeeded in finding the operating point.


Date: Tue Feb  6 20:38:45 2024
Total elapsed time: 1.187 seconds.

tnom = 27
temp = 27
method = modified trap
totiter = 6783
traniter = 6270
tranpoints = 1989
accept = 1743
rejected = 246
matrix size = 67
fillins = 101
solver = Normal
Avg thread counts: 1.6/3.0/3.1/1.6
Matrix Compiler1: 9.11 KB object code size  14.1/9.0/[3.9]
Matrix Compiler2: 7.14 KB object code size  6.5/7.9/[2.5]

