Circuit: * C:\Dev\GitHub\ECE-2804-SpO2\Milestone_2\Signal Amplifier\VtoI.asc

Direct Newton iteration for .op point succeeded.

Date: Sun Feb  4 20:54:16 2024
Total elapsed time: 0.671 seconds.

tnom = 27
temp = 27
method = modified trap
totiter = 2114
traniter = 2088
tranpoints = 1045
accept = 1045
rejected = 0
matrix size = 35
fillins = 35
solver = Normal
Avg thread counts: 2.9/4.8/4.8/2.9
Matrix Compiler1: 3.47 KB object code size  7.1/4.3/[1.7]
Matrix Compiler2: 3.39 KB object code size  3.2/4.0/[1.3]

