Circuit: * Z:\run\user\1000\kio-fuse-hmJmqG\smb\User@192.168.122.191\Shared\CSS_Github\Class_24012024\ECE-2804-SpO2\Milestone_2\Signal Amplifier\VtoI.asc

Direct Newton iteration for .op point succeeded.

Date: Tue Jan 30 16:30:04 2024
Total elapsed time: 0.429 seconds.

tnom = 27
temp = 27
method = modified trap
totiter = 2114
traniter = 2088
tranpoints = 1045
accept = 1045
rejected = 0
matrix size = 35
fillins = 35
solver = Normal
Avg thread counts: 2.9/4.8/4.8/2.9
Matrix Compiler1:     196 opcodes  0.8/0.7/[0.5]
Matrix Compiler2: off
